5
Unit of positions is angstrom. Iteration 0, total energy:-688.851954 max force component: 0.008908
F 0.899514661 0.899514661 0.899514661
Si 0 0 0
F -0.899514661 -0.899514661 0.899514661
F -0.899514661 0.899514661 -0.899514661
F 0.899514661 -0.899514661 -0.899514661
5
Iteration 1, total energy: -688.852378 max force component: 0.006909
F 0.901871493976 0.901871442201 0.901871328414
Si -4.62990694485e-08 -5.60683362091e-08 -7.19286829886e-09
F -0.901871522373 -0.901871415932 0.901871280131
F -0.901871460705 0.901871406315 -0.901871276991
F 0.901871471851 -0.901871406366 -0.901871297611
5
Iteration 2, total energy: -688.853038 max force component: 0.000353
F 0.910014993654 0.910014872773 0.910014525292
Si 3.39498194329e-07 6.63007925863e-08 -1.76822321965e-08
F -0.910014809219 -0.910014729069 0.91001439518
F -0.910015560341 0.910015133268 -0.910014810492
F 0.910015026703 -0.910014883694 -0.910014638042
